<NUMBER OF ZONES> 24
<TOTAL OD FLOW> 5.0
<END OF METADATA>


Origin 	1 
    9 :      5.0;



